/*--------------------------------*- C++ -*----------------------------------*\
| =========                 |                                                 |
| \\      /  F ield         | OpenFOAM: The Open Source CFD Toolbox           |
|  \\    /   O peration     | Version:  5                                     |
|   \\  /    A nd           | Web:      www.OpenFOAM.org                      |
|    \\/     M anipulation  |                                                 |
\*---------------------------------------------------------------------------*/
FoamFile
{
    version     2.0;
    format      ascii;
    class       volScalarField;
    location    "0";
    object      k;
}
// * * * * * * * * * * * * * * * * * * * * * * * * * * * * * * * * * * * * * //

dimensions      [0 2 -2 0 0 0 0];

internalField   uniform 0.001407281;

boundaryField
{
    inlet
    {
        type            fixedValue;
        value           uniform 0.001407281;
    }

    outlet
    {
        type            zeroGradient;
    }
    axis
    {
        type            zeroGradient;
    }
    heatedWall
    {
        type            kqRWallFunction;
	value		uniform 0.001407281;
    }
    unheatedWall
    {
        type            kqRWallFunction;
	value		uniform 0.001407281;
    }
}


// ************************************************************************* //
