/*--------------------------------*- C++ -*----------------------------------*\
  =========                 |
  \\      /  F ield         | OpenFOAM: The Open Source CFD Toolbox
   \\    /   O peration     | Website:  https://openfoam.org
    \\  /    A nd           | Version:  9
     \\/     M anipulation  |
\*---------------------------------------------------------------------------*/
FoamFile
{
    format      ascii;
    class       polyBoundaryMesh;
    location    "constant/polyMesh";
    object      boundary;
}
// * * * * * * * * * * * * * * * * * * * * * * * * * * * * * * * * * * * * * //

6
(
    inlet
    {
        type            patch;
        nFaces          500;
        startFace       255244;
    }
    outlet
    {
        type            patch;
        nFaces          500;
        startFace       255744;
    }
    axis
    {
        type            patch;
        nFaces          256;
        startFace       256244;
    }
    heatedWall
    {
        type            wall;
        inGroups        List<word> 1(wall);
        nFaces          200;
        startFace       256500;
    }
    unheatedWall
    {
        type            wall;
        inGroups        List<word> 1(wall);
        nFaces          56;
        startFace       256700;
    }
    defaultFaces
    {
        type            empty;
        inGroups        List<word> 1(empty);
        nFaces          256000;
        startFace       256756;
    }
)

// ************************************************************************* //
