/*--------------------------------*- C++ -*----------------------------------*\
  =========                 |
  \\      /  F ield         | OpenFOAM: The Open Source CFD Toolbox
   \\    /   O peration     | Website:  https://openfoam.org
    \\  /    A nd           | Version:  11
     \\/     M anipulation  |
\*---------------------------------------------------------------------------*/
FoamFile
{
    format      ascii;
    class       polyBoundaryMesh;
    location    "constant/polyMesh";
    object      boundary;
}
// * * * * * * * * * * * * * * * * * * * * * * * * * * * * * * * * * * * * * //

6
(
    inlet
    {
        type            patch;
        nFaces          1000;
        startFace       306846;
    }
    outlet
    {
        type            patch;
        nFaces          1000;
        startFace       307846;
    }
    axis
    {
        type            patch;
        nFaces          154;
        startFace       308846;
    }
    heatedWall
    {
        type            wall;
        inGroups        List<word> 1(wall);
        nFaces          140;
        startFace       309000;
    }
    unheatedWall
    {
        type            wall;
        inGroups        List<word> 1(wall);
        nFaces          14;
        startFace       309140;
    }
    defaultFaces
    {
        type            empty;
        inGroups        List<word> 1(empty);
        nFaces          308000;
        startFace       309154;
    }
)

// ************************************************************************* //
